%nproc=4
%mem=18GB
%chk=Molecule_PENCEN4.chk
#p B3LYP/6-31G(d) SP

Molecule_PENCEN

0 1
C -1.3242 -1.0531 5.9036 
C -1.9511 -2.3883 4.0401 
C -1.95 -2.1472 5.3743 
C -0.7389 -0.1753 5.0625 
C -0.7026 -0.3518 3.637 
C -0.0856 0.4558 2.7466 
C -0.0904 0.3032 1.3776 
C 0.6176 1.1704 0.4858 
C -0.5826 -0.9036 0.8222 
C -1.2835 -1.7553 1.7764 
C -1.271 -1.5305 3.1164 
H -1.3311 -0.8519 6.9898 
H -2.4053 -3.2981 3.6399 
H -2.4441 -2.8444 6.0907 
H -0.2026 0.7192 5.3656 
H 0.397 1.3169 3.1613 
H 1.0652 2.0135 0.8846 
H -1.7421 -2.6674 1.4212 
C 0.5826 0.9036 -0.8222 
C -0.6176 -1.1704 -0.4858 
C 0.0904 -0.3032 -1.3776 
C 1.2835 1.7553 -1.7764 
H -1.0652 -2.0135 -0.8846 
C 0.0856 -0.4558 -2.7466 
C 1.271 1.5305 -3.1164 
H 1.7421 2.6674 -1.4212 
C 0.7026 0.3518 -3.637 
H -0.397 -1.3169 -3.1613 
C 1.9511 2.3883 -4.0401 
C 0.7389 0.1753 -5.0625 
C 1.95 2.1472 -5.3743 
H 2.4053 3.2981 -3.6399 
C 1.3242 1.0531 -5.9036 
H 0.2026 -0.7192 -5.3656 
H 2.4441 2.8444 -6.0907 
H 1.3311 0.8519 -6.9898

