%nproc=4
%mem=8GB
%chk=Molecule_TETCEN.chk
#p B3LYP/6-31G(d) SP

Molecule_TETCEN

0 1
C -1.1172 -0.6098 4.7694 
C -0.4746 0.2717 3.9467 
C -0.4185 0.0114 2.5012 
C 0.2133 0.8599 1.6675 
C 0.2988 0.6114 0.2587 
C 0.9076 1.448 -0.6327 
C -0.9548 -1.1859 2.0071 
C -1.6568 -2.082 2.8874 
C -1.7168 -1.8267 4.2704 
H -1.139 -0.3757 5.7626 
H -0.062 1.1818 4.279 
H 0.6487 1.787 2.023 
H 1.3268 2.3805 -0.2697 
H -1.9925 -2.9775 2.4767 
H -2.1537 -2.5107 4.9043 
C -0.2988 -0.6114 -0.2587 
C 0.9548 1.1859 -2.0071 
C -0.9076 -1.448 0.6327 
C -0.2133 -0.8599 -1.6675 
C 0.4185 -0.0114 -2.5012 
C 1.6568 2.082 -2.8874 
H -1.3268 -2.3805 0.2697 
H -0.6487 -1.787 -2.023 
C 0.4746 -0.2717 -3.9467 
C 1.7168 1.8267 -4.2704 
H 1.9925 2.9775 -2.4767 
C 1.1172 0.6098 -4.7694 
H 0.062 -1.1818 -4.279 
H 2.1537 2.5107 -4.9043 
H 1.139 0.3757 -5.7626

